[root]
type=Root
children=system
eventq_index=0
full_system=false
sim_quantum=0
time_sync_enable=false
time_sync_period=100000000000
time_sync_spin_threshold=100000000

[system]
type=System
children=clk_domain cpu cpu_clk_domain cpu_voltage_domain dvfs_handler mem_ctrls membus redirect_paths0 redirect_paths1 redirect_paths2 voltage_domain workload
auto_unlink_shared_backstore=false
cache_line_size=64
eventq_index=0
exit_on_work_items=false
init_param=0
m5ops_base=0
mem_mode=timing
mem_ranges=0:536870912
memories=system.mem_ctrls
mmap_using_noreserve=false
multi_thread=false
num_work_ids=16
readfile=
redirect_paths=system.redirect_paths0 system.redirect_paths1 system.redirect_paths2
shadow_rom_ranges=
shared_backstore=
symbolfile=
thermal_components=
thermal_model=Null
work_begin_ckpt_count=0
work_begin_cpu_id_exit=-1
work_begin_exit_count=0
work_cpus_ckpt_count=0
work_end_ckpt_count=0
work_end_exit_count=0
work_item_id=-1
workload=system.workload
system_port=system.membus.cpu_side_ports[0]

[system.clk_domain]
type=SrcClockDomain
clock=1000
domain_id=-1
eventq_index=0
init_perf_level=0
voltage_domain=system.voltage_domain

[system.cpu]
type=BaseTimingSimpleCPU
children=decoder interrupts isa mmu power_state tracer workload
branchPred=Null
checker=Null
clk_domain=system.cpu_clk_domain
cpu_id=0
decoder=system.cpu.decoder
do_checkpoint_insts=true
do_statistics_insts=true
eventq_index=0
function_trace=false
function_trace_start=0
interrupts=system.cpu.interrupts
isa=system.cpu.isa
max_insts_all_threads=0
max_insts_any_thread=0
mmu=system.cpu.mmu
numThreads=1
power_gating_on_idle=false
power_model=
power_state=system.cpu.power_state
progress_interval=0
pwr_gating_latency=300
simpoint_start_insts=
socket_id=0
switched_out=false
syscallRetryLatency=10000
system=system
tracer=system.cpu.tracer
workload=system.cpu.workload
dcache_port=system.membus.cpu_side_ports[2]
icache_port=system.membus.cpu_side_ports[1]

[system.cpu.decoder]
type=ArmDecoder
dvm_enabled=false
eventq_index=0
isa=system.cpu.isa

[system.cpu.interrupts]
type=ArmInterrupts
eventq_index=0

[system.cpu.isa]
type=ArmISA
children=release_se
decoderFlavor=Generic
eventq_index=0
fpsid=1090793632
id_aa64afr0_el1=0
id_aa64afr1_el1=0
id_aa64dfr0_el1=15790086
id_aa64dfr1_el1=0
id_aa64isar0_el1=268435456
id_aa64isar1_el1=16846864
id_aa64mmfr0_el1=15728642
id_aa64mmfr1_el1=1052704
id_aa64mmfr2_el1=65552
id_isar0=34607377
id_isar1=34677009
id_isar2=555950401
id_isar3=17899825
id_isar4=268501314
id_isar5=285212672
id_isar6=1
id_mmfr0=270536963
id_mmfr1=0
id_mmfr2=19070976
id_mmfr3=34611729
id_mmfr4=0
impdef_nop=false
midr=0
mpamidr_el1=3746995439730032896
pmu=Null
release_se=system.cpu.isa.release_se
sme_vl_se=1
sve_vl_se=1
system=system

[system.cpu.isa.release_se]
type=ArmRelease
eventq_index=0
extensions=FEAT_AES FEAT_PMULL FEAT_SHA1 FEAT_SHA256 FEAT_CRC32 FEAT_LSE FEAT_RDM FEAT_F32MM FEAT_F64MM FEAT_SVE FEAT_I8MM FEAT_DOTPROD FEAT_FCMA FEAT_JSCVT FEAT_PAuth FEAT_FLAGM FEAT_FLAGM2 FEAT_SME TME

[system.cpu.mmu]
type=ArmMMU
children=dtb dtb_walker itb itb_walker l2_shared stage2_dtb stage2_dtb_walker stage2_itb stage2_itb_walker
dtb=system.cpu.mmu.dtb
dtb_walker=system.cpu.mmu.dtb_walker
eventq_index=0
itb=system.cpu.mmu.itb
itb_walker=system.cpu.mmu.itb_walker
release_se=system.cpu.isa.release_se
stage2_dtb=system.cpu.mmu.stage2_dtb
stage2_dtb_walker=system.cpu.mmu.stage2_dtb_walker
stage2_itb=system.cpu.mmu.stage2_itb
stage2_itb_walker=system.cpu.mmu.stage2_itb_walker
sys=system

[system.cpu.mmu.dtb]
type=ArmTLB
children=indexing_policy replacement_policy
assoc=64
entry_type=data
eventq_index=0
indexing_policy=system.cpu.mmu.dtb.indexing_policy
is_stage2=false
next_level=system.cpu.mmu.l2_shared
partial_levels=
replacement_policy=system.cpu.mmu.dtb.replacement_policy
size=64
sys=system

[system.cpu.mmu.dtb.indexing_policy]
type=TLBSetAssociative
assoc=64
eventq_index=0
num_entries=64

[system.cpu.mmu.dtb.replacement_policy]
type=LRURP
eventq_index=0

[system.cpu.mmu.dtb_walker]
type=ArmTableWalker
children=power_state
clk_domain=system.cpu_clk_domain
eventq_index=0
is_stage2=false
num_squash_per_cycle=2
power_model=
power_state=system.cpu.mmu.dtb_walker.power_state
sys=system
port=system.membus.cpu_side_ports[4]

[system.cpu.mmu.dtb_walker.power_state]
type=PowerState
clk_gate_bins=20
clk_gate_max=1000000000000
clk_gate_min=1000
default_state=UNDEFINED
eventq_index=0
leaders=
possible_states=

[system.cpu.mmu.itb]
type=ArmTLB
children=indexing_policy replacement_policy
assoc=64
entry_type=instruction
eventq_index=0
indexing_policy=system.cpu.mmu.itb.indexing_policy
is_stage2=false
next_level=system.cpu.mmu.l2_shared
partial_levels=
replacement_policy=system.cpu.mmu.itb.replacement_policy
size=64
sys=system

[system.cpu.mmu.itb.indexing_policy]
type=TLBSetAssociative
assoc=64
eventq_index=0
num_entries=64

[system.cpu.mmu.itb.replacement_policy]
type=LRURP
eventq_index=0

[system.cpu.mmu.itb_walker]
type=ArmTableWalker
children=power_state
clk_domain=system.cpu_clk_domain
eventq_index=0
is_stage2=false
num_squash_per_cycle=2
power_model=
power_state=system.cpu.mmu.itb_walker.power_state
sys=system
port=system.membus.cpu_side_ports[3]

[system.cpu.mmu.itb_walker.power_state]
type=PowerState
clk_gate_bins=20
clk_gate_max=1000000000000
clk_gate_min=1000
default_state=UNDEFINED
eventq_index=0
leaders=
possible_states=

[system.cpu.mmu.l2_shared]
type=ArmTLB
children=indexing_policy replacement_policy
assoc=5
entry_type=unified
eventq_index=0
indexing_policy=system.cpu.mmu.l2_shared.indexing_policy
is_stage2=false
next_level=Null
partial_levels=L2
replacement_policy=system.cpu.mmu.l2_shared.replacement_policy
size=1280
sys=system

[system.cpu.mmu.l2_shared.indexing_policy]
type=TLBSetAssociative
assoc=5
eventq_index=0
num_entries=1280

[system.cpu.mmu.l2_shared.replacement_policy]
type=LRURP
eventq_index=0

[system.cpu.mmu.stage2_dtb]
type=ArmTLB
children=indexing_policy replacement_policy
assoc=32
entry_type=data
eventq_index=0
indexing_policy=system.cpu.mmu.stage2_dtb.indexing_policy
is_stage2=true
next_level=Null
partial_levels=
replacement_policy=system.cpu.mmu.stage2_dtb.replacement_policy
size=32
sys=system

[system.cpu.mmu.stage2_dtb.indexing_policy]
type=TLBSetAssociative
assoc=32
eventq_index=0
num_entries=32

[system.cpu.mmu.stage2_dtb.replacement_policy]
type=LRURP
eventq_index=0

[system.cpu.mmu.stage2_dtb_walker]
type=ArmTableWalker
children=power_state
clk_domain=system.cpu_clk_domain
eventq_index=0
is_stage2=true
num_squash_per_cycle=2
power_model=
power_state=system.cpu.mmu.stage2_dtb_walker.power_state
sys=system
port=system.membus.cpu_side_ports[6]

[system.cpu.mmu.stage2_dtb_walker.power_state]
type=PowerState
clk_gate_bins=20
clk_gate_max=1000000000000
clk_gate_min=1000
default_state=UNDEFINED
eventq_index=0
leaders=
possible_states=

[system.cpu.mmu.stage2_itb]
type=ArmTLB
children=indexing_policy replacement_policy
assoc=32
entry_type=instruction
eventq_index=0
indexing_policy=system.cpu.mmu.stage2_itb.indexing_policy
is_stage2=true
next_level=Null
partial_levels=
replacement_policy=system.cpu.mmu.stage2_itb.replacement_policy
size=32
sys=system

[system.cpu.mmu.stage2_itb.indexing_policy]
type=TLBSetAssociative
assoc=32
eventq_index=0
num_entries=32

[system.cpu.mmu.stage2_itb.replacement_policy]
type=LRURP
eventq_index=0

[system.cpu.mmu.stage2_itb_walker]
type=ArmTableWalker
children=power_state
clk_domain=system.cpu_clk_domain
eventq_index=0
is_stage2=true
num_squash_per_cycle=2
power_model=
power_state=system.cpu.mmu.stage2_itb_walker.power_state
sys=system
port=system.membus.cpu_side_ports[5]

[system.cpu.mmu.stage2_itb_walker.power_state]
type=PowerState
clk_gate_bins=20
clk_gate_max=1000000000000
clk_gate_min=1000
default_state=UNDEFINED
eventq_index=0
leaders=
possible_states=

[system.cpu.power_state]
type=PowerState
clk_gate_bins=20
clk_gate_max=1000000000000
clk_gate_min=1000
default_state=UNDEFINED
eventq_index=0
leaders=
possible_states=ON CLK_GATED OFF

[system.cpu.tracer]
type=ExeTracer
children=disassembler
disassembler=system.cpu.tracer.disassembler
eventq_index=0

[system.cpu.tracer.disassembler]
type=InstDisassembler
eventq_index=0

[system.cpu.workload]
type=Process
cmd=./crc32_benchmarks/benchmark_matmul_O0_arm32
cwd=/root/eechw
drivers=
egid=100
env=
errout=cerr
euid=100
eventq_index=0
executable=./crc32_benchmarks/benchmark_matmul_O0_arm32
gid=0
input=cin
kvmInSE=false
maxStackSize=67108864
output=cout
pgid=100
pid=100
ppid=0
release=5.1.0
simpoint=0
system=system
uid=100
useArchPT=false

[system.cpu_clk_domain]
type=SrcClockDomain
clock=333
domain_id=-1
eventq_index=0
init_perf_level=0
voltage_domain=system.cpu_voltage_domain

[system.cpu_voltage_domain]
type=VoltageDomain
eventq_index=0
voltage=1.0

[system.dvfs_handler]
type=DVFSHandler
domains=
enable=false
eventq_index=0
sys_clk_domain=system.clk_domain
transition_latency=100000000

[system.mem_ctrls]
type=SimpleMemory
children=power_state
bandwidth=73.000000
clk_domain=system.clk_domain
collect_stats=true
conf_table_reported=true
eventq_index=0
image_file=
in_addr_map=true
kvm_map=true
latency=30000
latency_var=0
null=false
power_model=
power_state=system.mem_ctrls.power_state
range=0:536870912
writeable=true
port=system.membus.mem_side_ports[0]

[system.mem_ctrls.power_state]
type=PowerState
clk_gate_bins=20
clk_gate_max=1000000000000
clk_gate_min=1000
default_state=UNDEFINED
eventq_index=0
leaders=
possible_states=

[system.membus]
type=CoherentXBar
children=power_state snoop_filter
clk_domain=system.clk_domain
eventq_index=0
forward_latency=4
frontend_latency=3
header_latency=1
max_outstanding_snoops=512
max_routing_table_size=512
point_of_coherency=true
point_of_unification=true
power_model=
power_state=system.membus.power_state
response_latency=2
snoop_filter=system.membus.snoop_filter
snoop_response_latency=4
system=system
use_default_range=false
width=16
cpu_side_ports=system.system_port system.cpu.icache_port system.cpu.dcache_port system.cpu.mmu.itb_walker.port system.cpu.mmu.dtb_walker.port system.cpu.mmu.stage2_itb_walker.port system.cpu.mmu.stage2_dtb_walker.port
mem_side_ports=system.mem_ctrls.port

[system.membus.power_state]
type=PowerState
clk_gate_bins=20
clk_gate_max=1000000000000
clk_gate_min=1000
default_state=UNDEFINED
eventq_index=0
leaders=
possible_states=

[system.membus.snoop_filter]
type=SnoopFilter
eventq_index=0
lookup_latency=1
max_capacity=8388608
system=system

[system.redirect_paths0]
type=RedirectPath
app_path=/proc
eventq_index=0
host_paths=m5out/fs/proc

[system.redirect_paths1]
type=RedirectPath
app_path=/sys
eventq_index=0
host_paths=m5out/fs/sys

[system.redirect_paths2]
type=RedirectPath
app_path=/tmp
eventq_index=0
host_paths=m5out/fs/tmp

[system.voltage_domain]
type=VoltageDomain
eventq_index=0
voltage=1.0

[system.workload]
type=ArmEmuLinux
eventq_index=0
remote_gdb_port=#7000
wait_for_remote_gdb=false

